Version 4
SHEET 1 1892 680
WIRE 96 -544 -464 -544
WIRE -464 -464 -464 -544
WIRE 656 -416 352 -416
WIRE 880 -416 656 -416
WIRE 1088 -416 976 -416
WIRE 96 -368 96 -544
WIRE 192 -368 96 -368
WIRE 352 -368 352 -416
WIRE 352 -368 256 -368
WIRE -464 -352 -464 -384
WIRE -464 -352 -576 -352
WIRE -384 -352 -464 -352
WIRE 656 -336 656 -416
WIRE 720 -336 656 -336
WIRE 896 -336 896 -368
WIRE 896 -336 800 -336
WIRE -384 -320 -384 -352
WIRE 192 -320 192 -368
WIRE 256 -320 256 -368
WIRE -576 -304 -576 -352
WIRE 896 -288 896 -336
WIRE -336 -224 -336 -240
WIRE -240 -224 -336 -224
WIRE -176 -224 -240 -224
WIRE 96 -224 96 -368
WIRE 96 -224 -80 -224
WIRE 1088 -224 1088 -416
WIRE 192 -208 192 -240
WIRE 224 -208 192 -208
WIRE 256 -208 256 -240
WIRE 256 -208 224 -208
WIRE 352 -208 352 -368
WIRE 384 -208 352 -208
WIRE 496 -208 464 -208
WIRE 656 -208 592 -208
WIRE 768 -208 656 -208
WIRE 848 -208 768 -208
WIRE 224 -176 224 -208
WIRE -96 -96 -96 -176
WIRE -64 -96 -96 -96
WIRE 96 -96 96 -224
WIRE 96 -96 16 -96
WIRE 352 -80 352 -208
WIRE 416 -80 352 -80
WIRE 512 -80 512 -160
WIRE 512 -80 496 -80
WIRE -240 -64 -240 -224
WIRE 656 -64 656 -208
WIRE 768 -64 768 -208
WIRE -96 -32 -96 -96
WIRE 48 -32 -96 -32
WIRE 160 -32 48 -32
WIRE 512 -32 512 -80
WIRE 512 -32 224 -32
WIRE 48 0 48 -32
WIRE 48 0 -16 0
WIRE 64 0 48 0
WIRE -16 32 -16 0
WIRE -240 48 -240 16
WIRE -144 48 -240 48
WIRE -576 64 -576 -240
WIRE -384 64 -384 -224
WIRE -384 64 -576 64
WIRE -240 64 -240 48
WIRE -240 64 -384 64
WIRE 160 64 160 32
WIRE 192 64 160 64
WIRE 224 64 224 32
WIRE 224 64 192 64
WIRE -144 96 -144 48
WIRE -16 96 -144 96
WIRE 656 96 656 16
WIRE 768 96 768 0
WIRE 768 96 656 96
WIRE 896 96 896 -192
WIRE 896 96 768 96
WIRE 1088 96 1088 -144
WIRE 1088 96 896 96
WIRE -240 112 -240 64
WIRE 192 128 192 64
WIRE 656 128 656 96
WIRE 144 208 16 208
WIRE 16 224 16 208
WIRE 16 352 16 304
WIRE 192 352 192 224
WIRE 192 352 16 352
WIRE 192 432 192 352
FLAG 192 432 0
FLAG 224 -176 0
FLAG -240 112 0
FLAG 656 128 0
SYMBOL schottky 208 -32 R0
SYMATTR InstName D1
SYMATTR Value RB055L-30
SYMBOL schottky 144 -32 R0
SYMATTR InstName D2
SYMATTR Value MBR0520L
SYMBOL pmos -176 -176 R270
SYMATTR InstName M1
SYMATTR Value FDC638P
SYMBOL pmos 592 -160 M270
SYMATTR InstName M2
SYMATTR Value FDC638P
SYMBOL res -80 -112 M90
WINDOW 0 0 56 VBottom 2
WINDOW 3 32 56 VTop 2
SYMATTR InstName R1
SYMATTR Value 10k
SYMBOL res 400 -96 M90
WINDOW 0 0 56 VBottom 2
WINDOW 3 32 56 VTop 2
SYMATTR InstName R2
SYMATTR Value 10k
SYMBOL voltage 192 -336 R0
WINDOW 123 0 0 Left 2
WINDOW 39 0 0 Left 2
SYMATTR InstName V1
SYMATTR Value 3
SYMBOL voltage 256 -336 R0
WINDOW 123 0 0 Left 2
WINDOW 39 0 0 Left 2
SYMATTR InstName V2
SYMATTR Value 5
SYMBOL res -256 -80 R0
SYMATTR InstName R3
SYMATTR Value 10k
SYMBOL res 640 -80 R0
SYMATTR InstName R4
SYMATTR Value 180k
SYMBOL voltage 16 208 R0
WINDOW 123 0 0 Left 2
WINDOW 39 0 0 Left 2
SYMATTR InstName V3
SYMATTR Value PULSE(0 5 100m 1n 1n 100m 220m 2)
SYMBOL ind 480 -224 R90
WINDOW 0 5 56 VBottom 2
WINDOW 3 32 56 VTop 2
SYMATTR InstName L2
SYMATTR Value 0.01n
SYMBOL cap 752 -64 R0
SYMATTR InstName C1
SYMATTR Value 22µ
SYMBOL nmos 144 128 R0
SYMATTR InstName M3
SYMATTR Value BSC0906NS
SYMBOL nmos 848 -288 R0
SYMATTR InstName M4
SYMATTR Value BSC0906NS
SYMBOL pmos 976 -368 M270
SYMATTR InstName M5
SYMATTR Value FDC638P
SYMBOL res 816 -352 R90
WINDOW 0 0 56 VBottom 2
WINDOW 3 32 56 VTop 2
SYMATTR InstName R5
SYMATTR Value 10k
SYMBOL res 1072 -240 R0
SYMATTR InstName R6
SYMATTR Value 10k
SYMBOL cap -32 32 R0
SYMATTR InstName C2
SYMATTR Value 100n
SYMBOL nmos -336 -320 M0
SYMATTR InstName M6
SYMATTR Value BSC0906NS
SYMBOL cap -592 -304 R0
SYMATTR InstName C3
SYMATTR Value 10µ
SYMBOL res -480 -480 R0
SYMATTR InstName R7
SYMATTR Value 10k
TEXT -428 280 Left 2 !.tran 0 10s 0 .8m
TEXT 1032 -456 Left 2 ;This node will keep the USB Kinetis on for ~5sec after a button push.
TEXT 1128 -400 Left 2 ;(Button push simulated with V3 and the 'closing' or 'opening' of M3)
TEXT -1208 -368 Left 2 ;This node feeds a schmitt trigger which is used for the
TEXT -1096 -336 Left 2 ;button pin interrupt on the USB Kinetis
