Version 4
SHEET 1 1060 680
WIRE 384 -288 -240 -288
WIRE 976 -288 384 -288
WIRE 384 -224 384 -288
WIRE 336 -208 128 -208
WIRE 976 -128 976 -288
WIRE 384 -64 384 -128
WIRE 976 0 976 -48
WIRE 128 32 128 -208
WIRE 128 32 -64 32
WIRE 304 32 128 32
WIRE 384 80 384 16
WIRE 560 80 384 80
WIRE 800 80 624 80
WIRE 928 80 800 80
WIRE -240 112 -240 -288
WIRE -64 112 -64 32
WIRE 384 112 384 80
WIRE 304 192 304 32
WIRE 320 192 304 192
WIRE 336 192 320 192
WIRE 800 224 800 80
WIRE 320 288 320 192
WIRE -240 416 -240 192
WIRE -64 416 -64 192
WIRE -64 416 -240 416
WIRE 320 416 320 368
WIRE 320 416 -64 416
WIRE 368 416 320 416
WIRE 384 416 384 208
WIRE 384 416 368 416
WIRE 800 416 800 304
WIRE 800 416 384 416
WIRE 976 416 976 96
WIRE 976 416 800 416
WIRE 368 480 368 416
FLAG 368 480 0
SYMBOL voltage -64 96 R0
WINDOW 123 0 0 Left 2
WINDOW 39 0 0 Left 2
SYMATTR InstName V1
SYMATTR Value PULSE(0 3 .3 .0001 .0001 .3 .7 2)
SYMBOL voltage -240 96 R0
WINDOW 123 0 0 Left 2
WINDOW 39 0 0 Left 2
SYMATTR InstName V2
SYMATTR Value 3
SYMBOL cap 624 64 R90
WINDOW 0 0 32 VBottom 2
WINDOW 3 32 32 VTop 2
SYMATTR InstName C1
SYMATTR Value 22µ
SYMBOL nmos 928 0 R0
SYMATTR InstName M2
SYMBOL res 960 -144 R0
SYMATTR InstName R4
SYMATTR Value 75k
SYMBOL nmos 336 112 R0
SYMATTR InstName M3
SYMATTR Value Si7336ADP
SYMBOL res 304 272 R0
SYMATTR InstName R1
SYMATTR Value 10k
SYMBOL res 784 208 R0
SYMATTR InstName R2
SYMATTR Value 1k
SYMBOL res 368 -80 R0
SYMATTR InstName R3
SYMATTR Value 55
SYMBOL pmos 336 -128 M180
SYMATTR InstName M1
SYMATTR Value Si4835DY
TEXT -98 442 Left 2 !.tran 2
